data/D003278/Lines.dss
New Line.line0 Units=km Length=0.001 bus1=n039065.1.2.3 bus2=n039066.1.2.3 switch=n enabled=y phases=3 Linecode=unknown_linecode_3
New Line.line1 Units=km Length=0.001 bus1=n039066.1.2.3 bus2=n039044.1.2.3 switch=n enabled=y phases=3 Linecode=19/3.75_AAC_-_PLUTO_3
New Line.line10 Units=km Length=0.051570000000000005 bus1=n039072.1.2.3 bus2=n039073.1.2.3 switch=n enabled=y phases=3 Linecode=7/.173_AAC_3
New Line.line11 Units=km Length=0.03766 bus1=n039073.1.2.3 bus2=n039074.1.2.3 switch=n enabled=y phases=3 Linecode=7/.173_AAC_3
New Line.line12 Units=km Length=0.03603 bus1=n039074.1.2.3 bus2=n574220.1.2.3 switch=n enabled=y phases=3 Linecode=7/.173_AAC_3
New Line.line13 Units=km Length=0.05552000000000001 bus1=n039069.1.2.3 bus2=n039075.1.2.3 switch=n enabled=y phases=3 Linecode=7/.173_AAC_3
New Line.line14 Units=km Length=0.04508 bus1=n039075.1.2.3 bus2=n039076.1.2.3 switch=n enabled=y phases=3 Linecode=7/.173_AAC_3
New Line.line15 Units=km Length=0.05273 bus1=n039076.1.2.3 bus2=n039077.1.2.3 switch=n enabled=y phases=3 Linecode=7/.173_AAC_3
New Line.line16 Units=km Length=0.001 bus1=n039077.1.2.3 bus2=n039078.1.2.3 switch=n enabled=y phases=3 Linecode=7/.173_AAC_3
New Line.line17 Units=km Length=0.0458 bus1=n039078.1.2.3 bus2=n039079.1.2.3 switch=n enabled=y phases=3 Linecode=66_HDCU_(19/2.11)_3
New Line.line18 Units=km Length=0.05683 bus1=n039079.1.2.3 bus2=n039080.1.2.3 switch=n enabled=y phases=3 Linecode=66_HDCU_(19/2.11)_3
New Line.line19 Units=km Length=0.001 bus1=n039080.1.2.3 bus2=n039081.1.2.3 switch=n enabled=y phases=3 Linecode=66_HDCU_(19/2.11)_3
New Line.line2 Units=km Length=0.04376 bus1=n039044.1.2.3 bus2=n039067.1.2.3 switch=n enabled=y phases=3 Linecode=19/3.75_AAC_-_PLUTO_3
New Line.line20 Units=km Length=0.00236 bus1=n039081.1.2.3 bus2=n574221.1.2.3 switch=n enabled=y phases=3 Linecode=66_HDCU_(19/2.11)_3
New Line.line21 Units=km Length=0.026949999999999998 bus1=n039071.1.2.3 bus2=n574222.1.2.3 switch=n enabled=y phases=3 Linecode=25AL_ABC_3
New Line.line22 Units=km Length=0.06057 bus1=n039078.1.2.3 bus2=n039082.1.2.3 switch=n enabled=y phases=3 Linecode=7/4.5_AAC_-_MERCURY_3
New Line.line23 Units=km Length=0.04617 bus1=n039082.1.2.3 bus2=n039083.1.2.3 switch=n enabled=y phases=3 Linecode=7/4.5_AAC_-_MERCURY_3
New Line.line24 Units=km Length=0.001 bus1=n039083.1.2.3 bus2=n039084.1.2.3 switch=n enabled=y phases=3 Linecode=7/4.5_AAC_-_MERCURY_3
New Line.line25 Units=km Length=0.002 bus1=n039084.1.2.3 bus2=n574223.1.2.3 switch=n enabled=y phases=3 Linecode=unknown_linecode_3
New Line.line26 Units=km Length=0.05473 bus1=n039078.1.2.3 bus2=n039085.1.2.3 switch=n enabled=y phases=3 Linecode=66_HDCU_(19/2.11)_3
New Line.line27 Units=km Length=0.001 bus1=n039085.1.2.3 bus2=n574224.1.2.3 switch=n enabled=y phases=3 Linecode=66_HDCU_(19/2.11)_3
New Line.line28 Units=km Length=0.02286 bus1=n039079.1.2.3 bus2=n039086.1.2.3 switch=n enabled=y phases=3 Linecode=25AL_ABC_3
New Line.line29 Units=km Length=0.001 bus1=n039086.1.2.3 bus2=n574225.1.2.3 switch=n enabled=y phases=3 Linecode=25AL_ABC_3
New Line.line3 Units=km Length=0.01428 bus1=n039067.1.2.3 bus2=n039068.1.2.3 switch=n enabled=y phases=3 Linecode=19/3.75_AAC_-_PLUTO_3
New Line.line30 Units=km Length=0.04137 bus1=n039081.1.2.3 bus2=n039047.1.2.3 switch=n enabled=y phases=3 Linecode=19/3.75_AAC_-_PLUTO_3
New Line.line31 Units=km Length=0.001 bus1=n039047.1.2.3 bus2=n574208.1.2.3 switch=n enabled=y phases=3 Linecode=19/3.75_AAC_-_PLUTO_3
New Line.line32 Units=km Length=0.018420000000000002 bus1=n039079.1.2.3 bus2=n039087.1.2.3 switch=n enabled=y phases=3 Linecode=25AL_ABC_3
New Line.line33 Units=km Length=0.001 bus1=n039087.1.2.3 bus2=n574226.1.2.3 switch=n enabled=y phases=3 Linecode=25AL_ABC_3
New Line.line34 Units=km Length=0.0456 bus1=n039074.1.2.3 bus2=n039063.1.2.3 switch=n enabled=y phases=3 Linecode=7/.173_AAC_3
New Line.line35 Units=km Length=0.00231 bus1=n039063.1.2.3 bus2=n574216.1.2.3 switch=n enabled=y phases=3 Linecode=7/.173_AAC_3
New Line.line36 Units=km Length=0.01459 bus1=n039075.1.2.3 bus2=n039088.1.2.3 switch=n enabled=y phases=3 Linecode=7/.064_CU_3
New Line.line37 Units=km Length=0.001 bus1=n039088.1.2.3 bus2=n574227.1.2.3 switch=n enabled=y phases=3 Linecode=7/.064_CU_3
New Line.line38 Units=km Length=0.02492 bus1=n039078.1.2.3 bus2=n039089.1.2.3 switch=n enabled=y phases=3 Linecode=25AL_ABC_3
New Line.line39 Units=km Length=0.001 bus1=n039089.1.2.3 bus2=n574228.1.2.3 switch=n enabled=y phases=3 Linecode=25AL_ABC_3
New Line.line4 Units=km Length=0.001 bus1=n039068.1.2.3 bus2=n039069.1.2.3 switch=n enabled=y phases=3 Linecode=19/3.75_AAC_-_PLUTO_3
New Line.line40 Units=km Length=0.01497 bus1=n039072.1.2.3 bus2=n574229.1.2.3 switch=n enabled=y phases=3 Linecode=25AL_ABC_3
New Line.line41 Units=km Length=0.05251 bus1=n039084.1.2.3 bus2=n039090.1.2.3 switch=n enabled=y phases=3 Linecode=7/4.5_AAC_-_MERCURY_3
New Line.line42 Units=km Length=0.03377 bus1=n039090.1.2.3 bus2=n039091.1.2.3 switch=n enabled=y phases=3 Linecode=7/4.5_AAC_-_MERCURY_3
New Line.line43 Units=km Length=0.001 bus1=n039091.1.2.3 bus2=n574230.1.2.3 switch=n enabled=y phases=3 Linecode=7/4.5_AAC_-_MERCURY_3
New Line.line44 Units=km Length=0.0054 bus1=n039073.1.2.3 bus2=n039092.1.2.3 switch=n enabled=y phases=3 Linecode=unknown_linecode_3
New Line.line45 Units=km Length=0.001 bus1=n039092.1.2.3 bus2=n574231.1.2.3 switch=n enabled=y phases=3 Linecode=unknown_linecode_3
New Line.line5 Units=km Length=0.04399 bus1=n039069.1.2.3 bus2=n039070.1.2.3 switch=n enabled=y phases=3 Linecode=7/.173_AAC_3
New Line.line6 Units=km Length=0.0502 bus1=n039070.1.2.3 bus2=n039071.1.2.3 switch=n enabled=y phases=3 Linecode=7/.173_AAC_3
New Line.line7 Units=km Length=0.01797 bus1=n039071.1.2.3 bus2=n574218.1.2.3 switch=n enabled=y phases=3 Linecode=25AL_ABC_3
New Line.line8 Units=km Length=0.0157 bus1=n039070.1.2.3 bus2=n574219.1.2.3 switch=n enabled=y phases=3 Linecode=25AL_ABC_3
New Line.line9 Units=km Length=0.05779 bus1=n039071.1.2.3 bus2=n039072.1.2.3 switch=n enabled=y phases=3 Linecode=7/.173_AAC_3
